*HEADING
hex meshed mohammad plate case
*INCLUDE, INPUT=plate1_mesh.inp
*BOUNDARY
bot,1,3
top,1,3
front,3,3
back,3,3
** properties from https://www.azom.com/article.aspx?ArticleID=6769
*MATERIAL,NAME=S4041
*ELASTIC
210E9,.27
*DENSITY
7.85E3
*SOLID SECTION,MATERIAL=S4041,ELSET=EB1
*STEP,INC=100000,NLGEOM
*DYNAMIC,DIRECT
1E-7, 1.0, 0.5E-9, 1.0E-1
*DLOAD
FSI, P1, 0.0
*NODE PRINT,NSET=ALLNODES,FREQUENCY=1
U
*EL PRINT,ELSET=Solid,FREQUENCY=1
S
*NODE FILE
U, RF
*EL FILE
E, S
*END STEP
